* Z:\home\michel\sim.gbw\m\sim.gbw_tmp.asc
.tran 0 255u 245u 1e-6
.backanno
.end
